16

C          0.99848        0.82425       -0.67673
C          1.06028        0.80620        0.81523
C         -0.53371        0.53194       -0.60088
C         -0.33568        0.22667        0.77758
C         -0.90608       -0.96117       -0.79259
C         -0.42860       -1.28351        0.58021
H          1.54260       -0.02325       -1.15577
H          1.29030        1.82047       -1.07981
H          0.97934        1.85073        1.19379
H          1.86135        0.21279        1.30566
H         -0.68234        0.76105       -1.63544
H         -1.10323        0.62732        1.47712
H         -0.38923       -1.52112       -1.60510
H         -2.01717       -1.03060       -0.86024
H          0.58095       -1.75260        0.54927
H         -1.19068       -1.81107        1.19359
